168437144
  -OEChem-10222408432D

138146  0     0  0  0  0  0  0999 V2000
    7.4703   -0.9926    0.0000 P   0  0  0  0  0  0  0  0  0  0  0  0
    8.0938   -1.7745    0.0000 O   0  0  0  0  0  0  0  0  0  0  0  0
    6.4703   -0.9926    0.0000 O   0  0  0  0  0  0  0  0  0  0  0  0
    8.2521   -0.3691    0.0000 O   0  0  0  0  0  0  0  0  0  0  0  0
    7.4703    0.0074    0.0000 O   0  0  0  0  0  0  0  0  0  0  0  0
    9.7127   -3.5584    0.0000 C   0  0  0  0  0  0  0  0  0  0  0  0
    4.6451   -0.4747    0.0000 C   0  0  0  0  0  0  0  0  0  0  0  0
    6.9703   -3.1833    0.0000 C   0  0  0  0  0  0  0  0  0  0  0  0
    6.0693   -2.7494    0.0000 C   0  0  0  0  0  0  0  0  0  0  0  0
    8.7408   -3.3228    0.0000 C   0  0  0  0  0  0  0  0  0  0  0  0
    4.8563   -1.4521    0.0000 C   0  0  0  0  0  0  0  0  0  0  0  0
    9.9947   -4.5178    0.0000 C   0  0  0  0  0  0  0  0  0  0  0  0
    3.6930   -0.1689    0.0000 C   0  0  0  0  0  0  0  0  0  0  0  0
   10.4026   -2.8345    0.0000 C   0  0  0  0  0  0  0  0  0  0  0  0
    5.3859    0.1970    0.0000 C   0  0  0  0  0  0  0  0  0  0  0  0
    7.8713   -2.7494    0.0000 C   0  0  0  0  0  0  0  0  0  0  0  0
    5.8468   -1.7745    0.0000 C   0  0  0  0  0  0  0  0  0  0  0  0
    9.3048   -5.2417    0.0000 C   0  0  0  0  0  0  0  0  0  0  0  0
    2.9521   -0.8406    0.0000 C   0  0  0  0  0  0  0  0  0  0  0  0
   10.1207   -1.8750    0.0000 C   0  0  0  0  0  0  0  0  0  0  0  0
    6.1268    0.8686    0.0000 C   0  0  0  0  0  0  0  0  0  0  0  0
    6.8764   -4.2207    0.0000 C   0  0  0  0  0  0  0  0  0  0  0  0
    5.3168   -3.4696    0.0000 C   0  0  0  0  0  0  0  0  0  0  0  0
    7.7325   -4.8140    0.0000 C   0  0  0  0  0  0  0  0  0  0  0  0
    4.3191   -3.1702    0.0000 C   0  0  0  0  0  0  0  0  0  0  0  0
    8.6710   -4.3621    0.0000 C   0  0  0  0  0  0  0  0  0  0  0  0
    4.0873   -2.1547    0.0000 C   0  0  0  0  0  0  0  0  0  0  0  0
   11.6564   -4.0294    0.0000 C   0  0  0  0  0  0  0  0  0  0  0  0
    4.2226    1.4802    0.0000 C   0  0  0  0  0  0  0  0  0  0  0  0
   10.9665   -4.7533    0.0000 C   0  0  0  0  0  0  0  0  0  0  0  0
    3.4817    0.8085    0.0000 C   0  0  0  0  0  0  0  0  0  0  0  0
   11.3745   -3.0700    0.0000 C   0  0  0  0  0  0  0  0  0  0  0  0
    5.1747    1.1744    0.0000 C   0  0  0  0  0  0  0  0  0  0  0  0
   12.6283   -4.2650    0.0000 C   0  0  0  0  0  0  0  0  0  0  0  0
    4.0114    2.4576    0.0000 C   0  0  0  0  0  0  0  0  0  0  0  0
    9.5867   -6.2011    0.0000 C   0  0  0  0  0  0  0  0  0  0  0  0
    8.3329   -5.0061    0.0000 C   0  0  0  0  0  0  0  0  0  0  0  0
    2.0000   -0.5348    0.0000 C   0  0  0  0  0  0  0  0  0  0  0  0
    3.1633   -1.8180    0.0000 C   0  0  0  0  0  0  0  0  0  0  0  0
   10.8106   -1.1511    0.0000 C   0  0  0  0  0  0  0  0  0  0  0  0
    9.1488   -1.6395    0.0000 C   0  0  0  0  0  0  0  0  0  0  0  0
    5.9156    1.8460    0.0000 C   0  0  0  0  0  0  0  0  0  0  0  0
    7.0789    0.5628    0.0000 C   0  0  0  0  0  0  0  0  0  0  0  0
    5.8883   -4.6687    0.0000 C   0  0  0  0  0  0  0  0  0  0  0  0
    5.0210   -4.5135    0.0000 C   0  0  0  0  0  0  0  0  0  0  0  0
   15.5439   -4.9716    0.0000 C   0  0  0  0  0  0  0  0  0  0  0  0
    3.3777    5.3899    0.0000 C   0  0  0  0  0  0  0  0  0  0  0  0
    7.6598   -5.8966    0.0000 C   0  0  0  0  0  0  0  0  0  0  0  0
    3.2595   -3.4035    0.0000 C   0  0  0  0  0  0  0  0  0  0  0  0
   14.5720   -4.7360    0.0000 C   0  0  0  0  0  0  0  0  0  0  0  0
    3.5889    4.4125    0.0000 C   0  0  0  0  0  0  0  0  0  0  0  0
   13.3182   -3.5411    0.0000 C   0  0  0  0  0  0  0  0  0  0  0  0
    4.7522    3.1293    0.0000 C   0  0  0  0  0  0  0  0  0  0  0  0
   12.9103   -5.2244    0.0000 C   0  0  0  0  0  0  0  0  0  0  0  0
    3.0593    2.7634    0.0000 C   0  0  0  0  0  0  0  0  0  0  0  0
    5.7905   -5.7493    0.0000 C   0  0  0  0  0  0  0  0  0  0  0  0
    3.8726   -4.9241    0.0000 C   0  0  0  0  0  0  0  0  0  0  0  0
    6.6822   -6.3674    0.0000 C   0  0  0  0  0  0  0  0  0  0  0  0
    3.0341   -4.2874    0.0000 C   0  0  0  0  0  0  0  0  0  0  0  0
   14.2901   -3.7766    0.0000 C   0  0  0  0  0  0  0  0  0  0  0  0
    4.5410    4.1067    0.0000 C   0  0  0  0  0  0  0  0  0  0  0  0
   13.8821   -5.4599    0.0000 C   0  0  0  0  0  0  0  0  0  0  0  0
    2.8480    3.7408    0.0000 C   0  0  0  0  0  0  0  0  0  0  0  0
   16.5158   -5.2071    0.0000 C   0  0  0  0  0  0  0  0  0  0  0  0
   15.3084   -5.9434    0.0000 C   0  0  0  0  0  0  0  0  0  0  0  0
   15.7794   -3.9997    0.0000 C   0  0  0  0  0  0  0  0  0  0  0  0
    3.1664    6.3674    0.0000 C   0  0  0  0  0  0  0  0  0  0  0  0
    2.4002    5.1787    0.0000 C   0  0  0  0  0  0  0  0  0  0  0  0
    4.3551    5.6012    0.0000 C   0  0  0  0  0  0  0  0  0  0  0  0
    8.8770   -5.6905    0.0000 H   0  0  0  0  0  0  0  0  0  0  0  0
    3.5424   -1.0301    0.0000 H   0  0  0  0  0  0  0  0  0  0  0  0
    9.6929   -2.3238    0.0000 H   0  0  0  0  0  0  0  0  0  0  0  0
    6.2578    0.2626    0.0000 H   0  0  0  0  0  0  0  0  0  0  0  0
    9.1846   -4.7094    0.0000 H   0  0  0  0  0  0  0  0  0  0  0  0
    3.4956   -1.9697    0.0000 H   0  0  0  0  0  0  0  0  0  0  0  0
   11.1413   -5.3482    0.0000 H   0  0  0  0  0  0  0  0  0  0  0  0
    2.8914    0.9981    0.0000 H   0  0  0  0  0  0  0  0  0  0  0  0
   11.8022   -2.6212    0.0000 H   0  0  0  0  0  0  0  0  0  0  0  0
    5.6340    1.5908    0.0000 H   0  0  0  0  0  0  0  0  0  0  0  0
    8.9919   -6.3759    0.0000 H   0  0  0  0  0  0  0  0  0  0  0  0
    9.7615   -6.7960    0.0000 H   0  0  0  0  0  0  0  0  0  0  0  0
   10.1815   -6.0263    0.0000 H   0  0  0  0  0  0  0  0  0  0  0  0
    8.4789   -4.4036    0.0000 H   0  0  0  0  0  0  0  0  0  0  0  0
    7.7303   -4.8601    0.0000 H   0  0  0  0  0  0  0  0  0  0  0  0
    8.1868   -5.6087    0.0000 H   0  0  0  0  0  0  0  0  0  0  0  0
    2.1896    0.0555    0.0000 H   0  0  0  0  0  0  0  0  0  0  0  0
    1.4097   -0.3452    0.0000 H   0  0  0  0  0  0  0  0  0  0  0  0
    1.8104   -1.1251    0.0000 H   0  0  0  0  0  0  0  0  0  0  0  0
    2.5573   -1.9490    0.0000 H   0  0  0  0  0  0  0  0  0  0  0  0
    3.2943   -2.4240    0.0000 H   0  0  0  0  0  0  0  0  0  0  0  0
    3.7693   -1.6870    0.0000 H   0  0  0  0  0  0  0  0  0  0  0  0
   11.2594   -1.5789    0.0000 H   0  0  0  0  0  0  0  0  0  0  0  0
   11.2383   -0.7023    0.0000 H   0  0  0  0  0  0  0  0  0  0  0  0
   10.3618   -0.7234    0.0000 H   0  0  0  0  0  0  0  0  0  0  0  0
    9.2948   -1.0369    0.0000 H   0  0  0  0  0  0  0  0  0  0  0  0
    8.5462   -1.4935    0.0000 H   0  0  0  0  0  0  0  0  0  0  0  0
    9.0028   -2.2420    0.0000 H   0  0  0  0  0  0  0  0  0  0  0  0
    6.5216    1.9770    0.0000 H   0  0  0  0  0  0  0  0  0  0  0  0
    5.7846    2.4521    0.0000 H   0  0  0  0  0  0  0  0  0  0  0  0
    5.3096    1.7151    0.0000 H   0  0  0  0  0  0  0  0  0  0  0  0
    6.8893   -0.0275    0.0000 H   0  0  0  0  0  0  0  0  0  0  0  0
    7.6692    0.3732    0.0000 H   0  0  0  0  0  0  0  0  0  0  0  0
    7.2685    1.1531    0.0000 H   0  0  0  0  0  0  0  0  0  0  0  0
    5.3828   -4.3096    0.0000 H   0  0  0  0  0  0  0  0  0  0  0  0
    5.4739   -4.9369    0.0000 H   0  0  0  0  0  0  0  0  0  0  0  0
    8.1734   -6.2439    0.0000 H   0  0  0  0  0  0  0  0  0  0  0  0
    2.8283   -2.9579    0.0000 H   0  0  0  0  0  0  0  0  0  0  0  0
   13.1434   -2.9462    0.0000 H   0  0  0  0  0  0  0  0  0  0  0  0
    5.3425    2.9397    0.0000 H   0  0  0  0  0  0  0  0  0  0  0  0
   12.4825   -5.6732    0.0000 H   0  0  0  0  0  0  0  0  0  0  0  0
    2.5999    2.3470    0.0000 H   0  0  0  0  0  0  0  0  0  0  0  0
    5.2289   -6.0118    0.0000 H   0  0  0  0  0  0  0  0  0  0  0  0
    3.7781   -5.5368    0.0000 H   0  0  0  0  0  0  0  0  0  0  0  0
    6.6335   -6.9854    0.0000 H   0  0  0  0  0  0  0  0  0  0  0  0
    2.4487   -4.4917    0.0000 H   0  0  0  0  0  0  0  0  0  0  0  0
   14.7178   -3.3278    0.0000 H   0  0  0  0  0  0  0  0  0  0  0  0
    5.0003    4.5231    0.0000 H   0  0  0  0  0  0  0  0  0  0  0  0
   14.0569   -6.0548    0.0000 H   0  0  0  0  0  0  0  0  0  0  0  0
    2.2577    3.9304    0.0000 H   0  0  0  0  0  0  0  0  0  0  0  0
   16.3697   -5.8097    0.0000 H   0  0  0  0  0  0  0  0  0  0  0  0
   17.1183   -5.3531    0.0000 H   0  0  0  0  0  0  0  0  0  0  0  0
   16.6618   -4.6045    0.0000 H   0  0  0  0  0  0  0  0  0  0  0  0
   14.7058   -5.7974    0.0000 H   0  0  0  0  0  0  0  0  0  0  0  0
   15.1623   -6.5460    0.0000 H   0  0  0  0  0  0  0  0  0  0  0  0
   15.9109   -6.0895    0.0000 H   0  0  0  0  0  0  0  0  0  0  0  0
   16.3820   -4.1457    0.0000 H   0  0  0  0  0  0  0  0  0  0  0  0
   15.9255   -3.3971    0.0000 H   0  0  0  0  0  0  0  0  0  0  0  0
   15.1769   -3.8537    0.0000 H   0  0  0  0  0  0  0  0  0  0  0  0
    3.7724    6.4983    0.0000 H   0  0  0  0  0  0  0  0  0  0  0  0
    3.0355    6.9734    0.0000 H   0  0  0  0  0  0  0  0  0  0  0  0
    2.5604    6.2364    0.0000 H   0  0  0  0  0  0  0  0  0  0  0  0
    2.2693    5.7847    0.0000 H   0  0  0  0  0  0  0  0  0  0  0  0
    1.7942    5.0477    0.0000 H   0  0  0  0  0  0  0  0  0  0  0  0
    2.5312    4.5727    0.0000 H   0  0  0  0  0  0  0  0  0  0  0  0
    4.4861    4.9952    0.0000 H   0  0  0  0  0  0  0  0  0  0  0  0
    4.9611    5.7321    0.0000 H   0  0  0  0  0  0  0  0  0  0  0  0
    4.2241    6.2072    0.0000 H   0  0  0  0  0  0  0  0  0  0  0  0
    8.1597    0.2439    0.0000 H   0  0  0  0  0  0  0  0  0  0  0  0
  1  2  1  0  0  0  0
  1  3  1  0  0  0  0
  1  4  1  0  0  0  0
  1  5  2  0  0  0  0
  2 16  1  0  0  0  0
  3 17  1  0  0  0  0
  4138  1  0  0  0  0
  6 10  1  0  0  0  0
  6 12  2  0  0  0  0
  6 14  1  0  0  0  0
  7 11  1  0  0  0  0
  7 13  2  0  0  0  0
  7 15  1  0  0  0  0
  8  9  1  0  0  0  0
  8 16  2  0  0  0  0
  8 22  1  0  0  0  0
  9 17  2  0  0  0  0
  9 23  1  0  0  0  0
 10 16  1  0  0  0  0
 10 26  2  0  0  0  0
 11 17  1  0  0  0  0
 11 27  2  0  0  0  0
 12 18  1  0  0  0  0
 12 30  1  0  0  0  0
 13 19  1  0  0  0  0
 13 31  1  0  0  0  0
 14 20  1  0  0  0  0
 14 32  2  0  0  0  0
 15 21  1  0  0  0  0
 15 33  2  0  0  0  0
 18 36  1  0  0  0  0
 18 37  1  0  0  0  0
 18 70  1  0  0  0  0
 19 38  1  0  0  0  0
 19 39  1  0  0  0  0
 19 71  1  0  0  0  0
 20 40  1  0  0  0  0
 20 41  1  0  0  0  0
 20 72  1  0  0  0  0
 21 42  1  0  0  0  0
 21 43  1  0  0  0  0
 21 73  1  0  0  0  0
 22 24  1  0  0  0  0
 22 44  2  0  0  0  0
 23 25  1  0  0  0  0
 23 45  2  0  0  0  0
 24 26  1  0  0  0  0
 24 48  2  0  0  0  0
 25 27  1  0  0  0  0
 25 49  2  0  0  0  0
 26 74  1  0  0  0  0
 27 75  1  0  0  0  0
 28 30  2  0  0  0  0
 28 32  1  0  0  0  0
 28 34  1  0  0  0  0
 29 31  2  0  0  0  0
 29 33  1  0  0  0  0
 29 35  1  0  0  0  0
 30 76  1  0  0  0  0
 31 77  1  0  0  0  0
 32 78  1  0  0  0  0
 33 79  1  0  0  0  0
 34 52  2  0  0  0  0
 34 54  1  0  0  0  0
 35 53  2  0  0  0  0
 35 55  1  0  0  0  0
 36 80  1  0  0  0  0
 36 81  1  0  0  0  0
 36 82  1  0  0  0  0
 37 83  1  0  0  0  0
 37 84  1  0  0  0  0
 37 85  1  0  0  0  0
 38 86  1  0  0  0  0
 38 87  1  0  0  0  0
 38 88  1  0  0  0  0
 39 89  1  0  0  0  0
 39 90  1  0  0  0  0
 39 91  1  0  0  0  0
 40 92  1  0  0  0  0
 40 93  1  0  0  0  0
 40 94  1  0  0  0  0
 41 95  1  0  0  0  0
 41 96  1  0  0  0  0
 41 97  1  0  0  0  0
 42 98  1  0  0  0  0
 42 99  1  0  0  0  0
 42100  1  0  0  0  0
 43101  1  0  0  0  0
 43102  1  0  0  0  0
 43103  1  0  0  0  0
 44 56  1  0  0  0  0
 44104  1  0  0  0  0
 45 57  1  0  0  0  0
 45105  1  0  0  0  0
 46 50  1  0  0  0  0
 46 64  1  0  0  0  0
 46 65  1  0  0  0  0
 46 66  1  0  0  0  0
 47 51  1  0  0  0  0
 47 67  1  0  0  0  0
 47 68  1  0  0  0  0
 47 69  1  0  0  0  0
 48 58  1  0  0  0  0
 48106  1  0  0  0  0
 49 59  1  0  0  0  0
 49107  1  0  0  0  0
 50 60  2  0  0  0  0
 50 62  1  0  0  0  0
 51 61  2  0  0  0  0
 51 63  1  0  0  0  0
 52 60  1  0  0  0  0
 52108  1  0  0  0  0
 53 61  1  0  0  0  0
 53109  1  0  0  0  0
 54 62  2  0  0  0  0
 54110  1  0  0  0  0
 55 63  2  0  0  0  0
 55111  1  0  0  0  0
 56 58  2  0  0  0  0
 56112  1  0  0  0  0
 57 59  2  0  0  0  0
 57113  1  0  0  0  0
 58114  1  0  0  0  0
 59115  1  0  0  0  0
 60116  1  0  0  0  0
 61117  1  0  0  0  0
 62118  1  0  0  0  0
 63119  1  0  0  0  0
 64120  1  0  0  0  0
 64121  1  0  0  0  0
 64122  1  0  0  0  0
 65123  1  0  0  0  0
 65124  1  0  0  0  0
 65125  1  0  0  0  0
 66126  1  0  0  0  0
 66127  1  0  0  0  0
 66128  1  0  0  0  0
 67129  1  0  0  0  0
 67130  1  0  0  0  0
 67131  1  0  0  0  0
 68132  1  0  0  0  0
 68133  1  0  0  0  0
 68134  1  0  0  0  0
 69135  1  0  0  0  0
 69136  1  0  0  0  0
 69137  1  0  0  0  0
M  END
> <PUBCHEM_COMPOUND_CID>
168437144

> <PUBCHEM_COMPOUND_CANONICALIZED>
1

> <PUBCHEM_CACTVS_COMPLEXITY>
1550

> <PUBCHEM_CACTVS_HBOND_ACCEPTOR>
4

> <PUBCHEM_CACTVS_HBOND_DONOR>
1

> <PUBCHEM_CACTVS_ROTATABLE_BOND>
10

> <PUBCHEM_CACTVS_SUBSKEYS>
AAADcfB8OAIAAAAAAAAAAAAAAAAAAAAAAAAwYMGDBIAAAADBVAAAGgAACCAADwSAmAAyBsAAARCAQiBCAIACAAAgIAAIiAAECIgIJiKAERKAMAAkwBEIiAfAwPAP4AADAAAYAADAAAYAADAAAAAAAAAAAA==

> <PUBCHEM_IUPAC_OPENEYE_NAME>
10,16-bis[4-(4-tert-butylphenyl)-2,6-diisopropyl-phenyl]-13-hydroxy-12,14-dioxa-13lambda5-phosphapentacyclo[13.8.0.02,11.03,8.018,23]tricosa-1(15),2(11),3,5,7,9,16,18,20,22-decaene 13-oxide

> <PUBCHEM_IUPAC_CAS_NAME>
10,16-bis[4-(4-tert-butylphenyl)-2,6-di(propan-2-yl)phenyl]-13-hydroxy-12,14-dioxa-13lambda5-phosphapentacyclo[13.8.0.02,11.03,8.018,23]tricosa-1(15),2(11),3,5,7,9,16,18,20,22-decaene 13-oxide

> <PUBCHEM_IUPAC_NAME_MARKUP>
10,16-bis[4-(4-<I>tert</I>-butylphenyl)-2,6-di(propan-2-yl)phenyl]-13-hydroxy-12,14-dioxa-13&lambda;<SUP>5</SUP>-phosphapentacyclo[13.8.0.0<SUP>2,11</SUP>.0<SUP>3,8</SUP>.0<SUP>18,23</SUP>]tricosa-1(15),2(11),3,5,7,9,16,18,20,22-decaene 13-oxide

> <PUBCHEM_IUPAC_NAME>
10,16-bis[4-(4-tert-butylphenyl)-2,6-di(propan-2-yl)phenyl]-13-hydroxy-12,14-dioxa-13lambda5-phosphapentacyclo[13.8.0.02,11.03,8.018,23]tricosa-1(15),2(11),3,5,7,9,16,18,20,22-decaene 13-oxide

> <PUBCHEM_IUPAC_SYSTEMATIC_NAME>
10,16-bis[4-(4-tert-butylphenyl)-2,6-di(propan-2-yl)phenyl]-13-oxidanyl-12,14-dioxa-13lambda5-phosphapentacyclo[13.8.0.02,11.03,8.018,23]tricosa-1(15),2(11),3,5,7,9,16,18,20,22-decaene 13-oxide

> <PUBCHEM_IUPAC_TRADITIONAL_NAME>
10,16-bis[4-(4-tert-butylphenyl)-2,6-diisopropyl-phenyl]-13-hydroxy-12,14-dioxa-13lambda5-phosphapentacyclo[13.8.0.02,11.03,8.018,23]tricosa-1(15),2(11),3,5,7,9,16,18,20,22-decaene 13-oxide

> <PUBCHEM_IUPAC_INCHI>
InChI=1S/C64H69O4P/c1-37(2)51-33-45(41-23-27-47(28-24-41)63(9,10)11)34-52(38(3)4)57(51)55-31-43-19-15-17-21-49(43)59-60-50-22-18-16-20-44(50)32-56(62(60)68-69(65,66)67-61(55)59)58-53(39(5)6)35-46(36-54(58)40(7)8)42-25-29-48(30-26-42)64(12,13)14/h15-40H,1-14H3,(H,65,66)

> <PUBCHEM_IUPAC_INCHIKEY>
DSIDJEFYZXERQO-UHFFFAOYSA-N

> <PUBCHEM_XLOGP3_AA>
19.2

> <PUBCHEM_EXACT_MASS>
932.49334768

> <PUBCHEM_MOLECULAR_FORMULA>
C64H69O4P

> <PUBCHEM_MOLECULAR_WEIGHT>
933.2

> <PUBCHEM_OPENEYE_CAN_SMILES>
CC(C)C1=CC(=CC(=C1C2=CC3=CC=CC=C3C4=C2OP(=O)(OC5=C4C6=CC=CC=C6C=C5C7=C(C=C(C=C7C(C)C)C8=CC=C(C=C8)C(C)(C)C)C(C)C)O)C(C)C)C9=CC=C(C=C9)C(C)(C)C

> <PUBCHEM_OPENEYE_ISO_SMILES>
CC(C)C1=CC(=CC(=C1C2=CC3=CC=CC=C3C4=C2OP(=O)(OC5=C4C6=CC=CC=C6C=C5C7=C(C=C(C=C7C(C)C)C8=CC=C(C=C8)C(C)(C)C)C(C)C)O)C(C)C)C9=CC=C(C=C9)C(C)(C)C

> <PUBCHEM_CACTVS_TPSA>
55.8

> <PUBCHEM_MONOISOTOPIC_WEIGHT>
932.49334768

> <PUBCHEM_TOTAL_CHARGE>
0

> <PUBCHEM_HEAVY_ATOM_COUNT>
69

> <PUBCHEM_ATOM_DEF_STEREO_COUNT>
0

> <PUBCHEM_ATOM_UDEF_STEREO_COUNT>
0

> <PUBCHEM_BOND_DEF_STEREO_COUNT>
0

> <PUBCHEM_BOND_UDEF_STEREO_COUNT>
0

> <PUBCHEM_ISOTOPIC_ATOM_COUNT>
0

> <PUBCHEM_COMPONENT_COUNT>
1

> <PUBCHEM_CACTVS_TAUTO_COUNT>
-1

> <PUBCHEM_COORDINATE_TYPE>
1
5
255

> <PUBCHEM_BONDANNOTATIONS>
10  16  8
10  26  8
11  17  8
11  27  8
12  30  8
13  31  8
14  32  8
15  33  8
22  24  8
22  44  8
23  25  8
23  45  8
24  26  8
24  48  8
25  27  8
25  49  8
28  30  8
28  32  8
29  31  8
29  33  8
34  52  8
34  54  8
35  53  8
35  55  8
44  56  8
45  57  8
48  58  8
49  59  8
50  60  8
50  62  8
51  61  8
51  63  8
52  60  8
53  61  8
54  62  8
55  63  8
56  58  8
57  59  8
6  12  8
6  14  8
7  13  8
7  15  8
8  16  8
8  22  8
9  17  8
9  23  8

$$$$
