11468389
  -OEChem-10222408442D

 70 76  0     0  0  0  0  0  0999 V2000
    7.8928    0.9715    0.0000 P   0  0  0  0  0  0  0  0  0  0  0  0
   11.1447    2.5239    0.0000 F   0  0  0  0  0  0  0  0  0  0  0  0
   12.0795    1.4627    0.0000 F   0  0  0  0  0  0  0  0  0  0  0  0
   10.0835    1.5891    0.0000 F   0  0  0  0  0  0  0  0  0  0  0  0
    7.0789    4.4818    0.0000 F   0  0  0  0  0  0  0  0  0  0  0  0
    5.6664    4.5511    0.0000 F   0  0  0  0  0  0  0  0  0  0  0  0
    7.0097    3.0693    0.0000 F   0  0  0  0  0  0  0  0  0  0  0  0
   13.4532   -2.1313    0.0000 F   0  0  0  0  0  0  0  0  0  0  0  0
   13.1742   -0.7449    0.0000 F   0  0  0  0  0  0  0  0  0  0  0  0
   12.0668   -2.4103    0.0000 F   0  0  0  0  0  0  0  0  0  0  0  0
    2.0000    3.3843    0.0000 F   0  0  0  0  0  0  0  0  0  0  0  0
    3.2579    4.0306    0.0000 F   0  0  0  0  0  0  0  0  0  0  0  0
    2.6463    2.1264    0.0000 F   0  0  0  0  0  0  0  0  0  0  0  0
    8.5162    0.1897    0.0000 O   0  0  0  0  0  0  0  0  0  0  0  0
    6.8928    0.9715    0.0000 O   0  0  0  0  0  0  0  0  0  0  0  0
    7.8928    1.9715    0.0000 O   0  0  0  0  0  0  0  0  0  0  0  0
    8.6746    1.5950    0.0000 O   0  0  0  0  0  0  0  0  0  0  0  0
    7.3928   -1.2191    0.0000 C   0  0  0  0  0  0  0  0  0  0  0  0
    6.4918   -0.7852    0.0000 C   0  0  0  0  0  0  0  0  0  0  0  0
    8.2937   -0.7852    0.0000 C   0  0  0  0  0  0  0  0  0  0  0  0
    6.2693    0.1897    0.0000 C   0  0  0  0  0  0  0  0  0  0  0  0
    7.2989   -2.2565    0.0000 C   0  0  0  0  0  0  0  0  0  0  0  0
    5.7392   -1.5054    0.0000 C   0  0  0  0  0  0  0  0  0  0  0  0
    9.1633   -1.3587    0.0000 C   0  0  0  0  0  0  0  0  0  0  0  0
    5.2788    0.5120    0.0000 C   0  0  0  0  0  0  0  0  0  0  0  0
    8.1550   -2.8499    0.0000 C   0  0  0  0  0  0  0  0  0  0  0  0
    4.7415   -1.2061    0.0000 C   0  0  0  0  0  0  0  0  0  0  0  0
    9.0935   -2.3979    0.0000 C   0  0  0  0  0  0  0  0  0  0  0  0
    4.5098   -0.1906    0.0000 C   0  0  0  0  0  0  0  0  0  0  0  0
   10.0592   -0.9144    0.0000 C   0  0  0  0  0  0  0  0  0  0  0  0
    5.0675    1.4895    0.0000 C   0  0  0  0  0  0  0  0  0  0  0  0
    6.6672   -3.1386    0.0000 C   0  0  0  0  0  0  0  0  0  0  0  0
    6.0051   -2.5573    0.0000 C   0  0  0  0  0  0  0  0  0  0  0  0
    8.6333   -3.8238    0.0000 C   0  0  0  0  0  0  0  0  0  0  0  0
    3.9405   -1.9379    0.0000 C   0  0  0  0  0  0  0  0  0  0  0  0
   10.8919   -1.4681    0.0000 C   0  0  0  0  0  0  0  0  0  0  0  0
    4.1154    1.7952    0.0000 C   0  0  0  0  0  0  0  0  0  0  0  0
   10.1224    0.0836    0.0000 C   0  0  0  0  0  0  0  0  0  0  0  0
    5.8084    2.1611    0.0000 C   0  0  0  0  0  0  0  0  0  0  0  0
    7.0621   -4.2925    0.0000 C   0  0  0  0  0  0  0  0  0  0  0  0
    5.2212   -3.3075    0.0000 C   0  0  0  0  0  0  0  0  0  0  0  0
    8.0828   -4.5511    0.0000 C   0  0  0  0  0  0  0  0  0  0  0  0
    4.1819   -2.9957    0.0000 C   0  0  0  0  0  0  0  0  0  0  0  0
   11.7878   -1.0238    0.0000 C   0  0  0  0  0  0  0  0  0  0  0  0
    3.9042    2.7727    0.0000 C   0  0  0  0  0  0  0  0  0  0  0  0
   11.0183    0.5279    0.0000 C   0  0  0  0  0  0  0  0  0  0  0  0
    5.5972    3.1386    0.0000 C   0  0  0  0  0  0  0  0  0  0  0  0
   11.8510   -0.0258    0.0000 C   0  0  0  0  0  0  0  0  0  0  0  0
    4.6451    3.4443    0.0000 C   0  0  0  0  0  0  0  0  0  0  0  0
   11.0815    1.5259    0.0000 C   0  0  0  0  0  0  0  0  0  0  0  0
    6.3380    3.8102    0.0000 C   0  0  0  0  0  0  0  0  0  0  0  0
   12.6205   -1.5776    0.0000 C   0  0  0  0  0  0  0  0  0  0  0  0
    2.9521    3.0785    0.0000 C   0  0  0  0  0  0  0  0  0  0  0  0
    9.6071   -2.7452    0.0000 H   0  0  0  0  0  0  0  0  0  0  0  0
    3.9180   -0.0055    0.0000 H   0  0  0  0  0  0  0  0  0  0  0  0
    6.0537   -3.0485    0.0000 H   0  0  0  0  0  0  0  0  0  0  0  0
    6.6009   -2.7286    0.0000 H   0  0  0  0  0  0  0  0  0  0  0  0
    9.2504   -3.8830    0.0000 H   0  0  0  0  0  0  0  0  0  0  0  0
    3.3488   -1.7529    0.0000 H   0  0  0  0  0  0  0  0  0  0  0  0
   10.8527   -2.0869    0.0000 H   0  0  0  0  0  0  0  0  0  0  0  0
    3.6561    1.3788    0.0000 H   0  0  0  0  0  0  0  0  0  0  0  0
    9.6061    0.4269    0.0000 H   0  0  0  0  0  0  0  0  0  0  0  0
    6.3987    1.9715    0.0000 H   0  0  0  0  0  0  0  0  0  0  0  0
    6.6420   -4.7484    0.0000 H   0  0  0  0  0  0  0  0  0  0  0  0
    5.3661   -3.9103    0.0000 H   0  0  0  0  0  0  0  0  0  0  0  0
    8.2880   -5.1361    0.0000 H   0  0  0  0  0  0  0  0  0  0  0  0
    3.7291   -3.4191    0.0000 H   0  0  0  0  0  0  0  0  0  0  0  0
   12.4064    0.2496    0.0000 H   0  0  0  0  0  0  0  0  0  0  0  0
    4.5141    4.0504    0.0000 H   0  0  0  0  0  0  0  0  0  0  0  0
    8.4297    2.2815    0.0000 H   0  0  0  0  0  0  0  0  0  0  0  0
  1 14  1  0  0  0  0
  1 15  1  0  0  0  0
  1 16  1  0  0  0  0
  1 17  2  0  0  0  0
  2 50  1  0  0  0  0
  3 50  1  0  0  0  0
  4 50  1  0  0  0  0
  5 51  1  0  0  0  0
  6 51  1  0  0  0  0
  7 51  1  0  0  0  0
  8 52  1  0  0  0  0
  9 52  1  0  0  0  0
 10 52  1  0  0  0  0
 11 53  1  0  0  0  0
 12 53  1  0  0  0  0
 13 53  1  0  0  0  0
 14 20  1  0  0  0  0
 15 21  1  0  0  0  0
 16 70  1  0  0  0  0
 18 19  1  0  0  0  0
 18 20  2  0  0  0  0
 18 22  1  0  0  0  0
 19 21  2  0  0  0  0
 19 23  1  0  0  0  0
 20 24  1  0  0  0  0
 21 25  1  0  0  0  0
 22 26  1  0  0  0  0
 22 32  2  0  0  0  0
 23 27  1  0  0  0  0
 23 33  2  0  0  0  0
 24 28  2  0  0  0  0
 24 30  1  0  0  0  0
 25 29  2  0  0  0  0
 25 31  1  0  0  0  0
 26 28  1  0  0  0  0
 26 34  2  0  0  0  0
 27 29  1  0  0  0  0
 27 35  2  0  0  0  0
 28 54  1  0  0  0  0
 29 55  1  0  0  0  0
 30 36  2  0  0  0  0
 30 38  1  0  0  0  0
 31 37  2  0  0  0  0
 31 39  1  0  0  0  0
 32 40  1  0  0  0  0
 32 56  1  0  0  0  0
 33 41  1  0  0  0  0
 33 57  1  0  0  0  0
 34 42  1  0  0  0  0
 34 58  1  0  0  0  0
 35 43  1  0  0  0  0
 35 59  1  0  0  0  0
 36 44  1  0  0  0  0
 36 60  1  0  0  0  0
 37 45  1  0  0  0  0
 37 61  1  0  0  0  0
 38 46  2  0  0  0  0
 38 62  1  0  0  0  0
 39 47  2  0  0  0  0
 39 63  1  0  0  0  0
 40 42  2  0  0  0  0
 40 64  1  0  0  0  0
 41 43  2  0  0  0  0
 41 65  1  0  0  0  0
 42 66  1  0  0  0  0
 43 67  1  0  0  0  0
 44 48  2  0  0  0  0
 44 52  1  0  0  0  0
 45 49  2  0  0  0  0
 45 53  1  0  0  0  0
 46 48  1  0  0  0  0
 46 50  1  0  0  0  0
 47 49  1  0  0  0  0
 47 51  1  0  0  0  0
 48 68  1  0  0  0  0
 49 69  1  0  0  0  0
M  END
> <PUBCHEM_COMPOUND_CID>
11468389

> <PUBCHEM_COMPOUND_CANONICALIZED>
1

> <PUBCHEM_CACTVS_COMPLEXITY>
1210

> <PUBCHEM_CACTVS_HBOND_ACCEPTOR>
16

> <PUBCHEM_CACTVS_HBOND_DONOR>
1

> <PUBCHEM_CACTVS_ROTATABLE_BOND>
2

> <PUBCHEM_CACTVS_SUBSKEYS>
AAADceB8OcIAAAAAAAAAAAAAAAAAAAAAAAAwYMGDBIAAAADBVAAAGwAACCAADASAmBAwBsAAARCAQiBCAIACAAAgIAAIiAAECIgIJiKAERKAMAAkwBEIiAfAwPAO4AADAAAYAADAAAYAADAAAAAAAAAAAA==

> <PUBCHEM_IUPAC_OPENEYE_NAME>
10,16-bis[3,5-bis(trifluoromethyl)phenyl]-13-hydroxy-12,14-dioxa-13lambda5-phosphapentacyclo[13.8.0.02,11.03,8.018,23]tricosa-1(15),2(11),3,5,7,9,16,18,20,22-decaene 13-oxide

> <PUBCHEM_IUPAC_CAS_NAME>
10,16-bis[3,5-bis(trifluoromethyl)phenyl]-13-hydroxy-12,14-dioxa-13lambda5-phosphapentacyclo[13.8.0.02,11.03,8.018,23]tricosa-1(15),2(11),3,5,7,9,16,18,20,22-decaene 13-oxide

> <PUBCHEM_IUPAC_NAME_MARKUP>
10,16-bis[3,5-bis(trifluoromethyl)phenyl]-13-hydroxy-12,14-dioxa-13&lambda;<SUP>5</SUP>-phosphapentacyclo[13.8.0.0<SUP>2,11</SUP>.0<SUP>3,8</SUP>.0<SUP>18,23</SUP>]tricosa-1(15),2(11),3,5,7,9,16,18,20,22-decaene 13-oxide

> <PUBCHEM_IUPAC_NAME>
10,16-bis[3,5-bis(trifluoromethyl)phenyl]-13-hydroxy-12,14-dioxa-13lambda5-phosphapentacyclo[13.8.0.02,11.03,8.018,23]tricosa-1(15),2(11),3,5,7,9,16,18,20,22-decaene 13-oxide

> <PUBCHEM_IUPAC_SYSTEMATIC_NAME>
10,16-bis[3,5-bis(trifluoromethyl)phenyl]-13-oxidanyl-12,14-dioxa-13lambda5-phosphapentacyclo[13.8.0.02,11.03,8.018,23]tricosa-1(15),2(11),3,5,7,9,16,18,20,22-decaene 13-oxide

> <PUBCHEM_IUPAC_TRADITIONAL_NAME>
10,16-bis[3,5-bis(trifluoromethyl)phenyl]-13-hydroxy-12,14-dioxa-13lambda5-phosphapentacyclo[13.8.0.02,11.03,8.018,23]tricosa-1(15),2(11),3,5,7,9,16,18,20,22-decaene 13-oxide

> <PUBCHEM_IUPAC_INCHI>
InChI=1S/C36H17F12O4P/c37-33(38,39)21-9-19(10-22(15-21)34(40,41)42)27-13-17-5-1-3-7-25(17)29-30-26-8-4-2-6-18(26)14-28(32(30)52-53(49,50)51-31(27)29)20-11-23(35(43,44)45)16-24(12-20)36(46,47)48/h1-16H,(H,49,50)

> <PUBCHEM_IUPAC_INCHIKEY>
DQORDVSQWPKAQJ-UHFFFAOYSA-N

> <PUBCHEM_XLOGP3_AA>
11.6

> <PUBCHEM_EXACT_MASS>
772.0672840

> <PUBCHEM_MOLECULAR_FORMULA>
C36H17F12O4P

> <PUBCHEM_MOLECULAR_WEIGHT>
772.5

> <PUBCHEM_OPENEYE_CAN_SMILES>
C1=CC=C2C(=C1)C=C(C3=C2C4=C(C(=CC5=CC=CC=C54)C6=CC(=CC(=C6)C(F)(F)F)C(F)(F)F)OP(=O)(O3)O)C7=CC(=CC(=C7)C(F)(F)F)C(F)(F)F

> <PUBCHEM_OPENEYE_ISO_SMILES>
C1=CC=C2C(=C1)C=C(C3=C2C4=C(C(=CC5=CC=CC=C54)C6=CC(=CC(=C6)C(F)(F)F)C(F)(F)F)OP(=O)(O3)O)C7=CC(=CC(=C7)C(F)(F)F)C(F)(F)F

> <PUBCHEM_CACTVS_TPSA>
55.8

> <PUBCHEM_MONOISOTOPIC_WEIGHT>
772.0672840

> <PUBCHEM_TOTAL_CHARGE>
0

> <PUBCHEM_HEAVY_ATOM_COUNT>
53

> <PUBCHEM_ATOM_DEF_STEREO_COUNT>
0

> <PUBCHEM_ATOM_UDEF_STEREO_COUNT>
0

> <PUBCHEM_BOND_DEF_STEREO_COUNT>
0

> <PUBCHEM_BOND_UDEF_STEREO_COUNT>
0

> <PUBCHEM_ISOTOPIC_ATOM_COUNT>
0

> <PUBCHEM_COMPONENT_COUNT>
1

> <PUBCHEM_CACTVS_TAUTO_COUNT>
-1

> <PUBCHEM_COORDINATE_TYPE>
1
5
255

> <PUBCHEM_BONDANNOTATIONS>
18  20  8
18  22  8
19  21  8
19  23  8
20  24  8
21  25  8
22  26  8
22  32  8
23  27  8
23  33  8
24  28  8
25  29  8
26  28  8
26  34  8
27  29  8
27  35  8
30  36  8
30  38  8
31  37  8
31  39  8
32  40  8
33  41  8
34  42  8
35  43  8
36  44  8
37  45  8
38  46  8
39  47  8
40  42  8
41  43  8
44  48  8
45  49  8
46  48  8
47  49  8

$$$$
