155009197
  -OEChem-10222405092D

116122  0     1  0  0  0  0  0999 V2000
    7.8928    0.9715    0.0000 P   0  0  3  0  0  0  0  0  0  0  0  0
    8.5162    0.1897    0.0000 O   0  0  0  0  0  0  0  0  0  0  0  0
    6.8928    0.9715    0.0000 O   0  0  0  0  0  0  0  0  0  0  0  0
    7.8928    1.9715    0.0000 O   0  0  0  0  0  0  0  0  0  0  0  0
    8.6746    1.5950    0.0000 O   0  0  0  0  0  0  0  0  0  0  0  0
    7.2989   -2.2565    0.0000 C   0  0  3  0  0  0  0  0  0  0  0  0
    8.1550   -2.8499    0.0000 C   0  0  3  0  0  0  0  0  0  0  0  0
    6.6672   -3.1386    0.0000 C   0  0  0  0  0  0  0  0  0  0  0  0
    8.6333   -3.8238    0.0000 C   0  0  0  0  0  0  0  0  0  0  0  0
    7.3928   -1.2191    0.0000 C   0  0  0  0  0  0  0  0  0  0  0  0
    7.0621   -4.2925    0.0000 C   0  0  0  0  0  0  0  0  0  0  0  0
    8.0828   -4.5511    0.0000 C   0  0  0  0  0  0  0  0  0  0  0  0
    9.0935   -2.3979    0.0000 C   0  0  0  0  0  0  0  0  0  0  0  0
    6.4918   -0.7852    0.0000 C   0  0  0  0  0  0  0  0  0  0  0  0
    8.2937   -0.7852    0.0000 C   0  0  0  0  0  0  0  0  0  0  0  0
    9.1633   -1.3587    0.0000 C   0  0  0  0  0  0  0  0  0  0  0  0
    5.7392   -1.5054    0.0000 C   0  0  0  0  0  0  0  0  0  0  0  0
    6.2693    0.1897    0.0000 C   0  0  0  0  0  0  0  0  0  0  0  0
    4.7415   -1.2061    0.0000 C   0  0  0  0  0  0  0  0  0  0  0  0
    6.0051   -2.5573    0.0000 C   0  0  0  0  0  0  0  0  0  0  0  0
   10.0592   -0.9144    0.0000 C   0  0  0  0  0  0  0  0  0  0  0  0
    3.9405   -1.9379    0.0000 C   0  0  0  0  0  0  0  0  0  0  0  0
    5.2212   -3.3075    0.0000 C   0  0  0  0  0  0  0  0  0  0  0  0
    5.2788    0.5120    0.0000 C   0  0  0  0  0  0  0  0  0  0  0  0
    4.1819   -2.9957    0.0000 C   0  0  0  0  0  0  0  0  0  0  0  0
    4.5098   -0.1906    0.0000 C   0  0  0  0  0  0  0  0  0  0  0  0
   10.1224    0.0836    0.0000 C   0  0  0  0  0  0  0  0  0  0  0  0
   10.8919   -1.4681    0.0000 C   0  0  0  0  0  0  0  0  0  0  0  0
    5.0675    1.4895    0.0000 C   0  0  0  0  0  0  0  0  0  0  0  0
   11.0183    0.5279    0.0000 C   0  0  0  0  0  0  0  0  0  0  0  0
   11.7878   -1.0238    0.0000 C   0  0  0  0  0  0  0  0  0  0  0  0
   11.0815    1.5259    0.0000 C   0  0  0  0  0  0  0  0  0  0  0  0
   12.6205   -1.5776    0.0000 C   0  0  0  0  0  0  0  0  0  0  0  0
   11.8510   -0.0258    0.0000 C   0  0  0  0  0  0  0  0  0  0  0  0
    4.1154    1.7952    0.0000 C   0  0  0  0  0  0  0  0  0  0  0  0
    5.8084    2.1611    0.0000 C   0  0  0  0  0  0  0  0  0  0  0  0
    3.9042    2.7727    0.0000 C   0  0  0  0  0  0  0  0  0  0  0  0
    5.5972    3.1386    0.0000 C   0  0  0  0  0  0  0  0  0  0  0  0
    2.9521    3.0785    0.0000 C   0  0  0  0  0  0  0  0  0  0  0  0
    6.3380    3.8102    0.0000 C   0  0  0  0  0  0  0  0  0  0  0  0
   11.1447    2.5239    0.0000 C   0  0  0  0  0  0  0  0  0  0  0  0
   12.0795    1.4627    0.0000 C   0  0  0  0  0  0  0  0  0  0  0  0
   10.0835    1.5891    0.0000 C   0  0  0  0  0  0  0  0  0  0  0  0
   13.4532   -2.1313    0.0000 C   0  0  0  0  0  0  0  0  0  0  0  0
   13.1742   -0.7449    0.0000 C   0  0  0  0  0  0  0  0  0  0  0  0
   12.0668   -2.4103    0.0000 C   0  0  0  0  0  0  0  0  0  0  0  0
    4.6451    3.4443    0.0000 C   0  0  0  0  0  0  0  0  0  0  0  0
    2.0000    3.3843    0.0000 C   0  0  0  0  0  0  0  0  0  0  0  0
    3.2579    4.0306    0.0000 C   0  0  0  0  0  0  0  0  0  0  0  0
    2.6463    2.1264    0.0000 C   0  0  0  0  0  0  0  0  0  0  0  0
    7.0789    4.4818    0.0000 C   0  0  0  0  0  0  0  0  0  0  0  0
    5.6664    4.5511    0.0000 C   0  0  0  0  0  0  0  0  0  0  0  0
    7.0097    3.0693    0.0000 C   0  0  0  0  0  0  0  0  0  0  0  0
    6.7178   -2.0405    0.0000 H   0  0  0  0  0  0  0  0  0  0  0  0
    8.7410   -3.0524    0.0000 H   0  0  0  0  0  0  0  0  0  0  0  0
    6.2478   -2.6819    0.0000 H   0  0  0  0  0  0  0  0  0  0  0  0
    6.1342   -3.4554    0.0000 H   0  0  0  0  0  0  0  0  0  0  0  0
    9.0637   -4.2700    0.0000 H   0  0  0  0  0  0  0  0  0  0  0  0
    9.1408   -3.4676    0.0000 H   0  0  0  0  0  0  0  0  0  0  0  0
    6.4479   -4.3772    0.0000 H   0  0  0  0  0  0  0  0  0  0  0  0
    7.0277   -4.9115    0.0000 H   0  0  0  0  0  0  0  0  0  0  0  0
    7.8520   -5.1265    0.0000 H   0  0  0  0  0  0  0  0  0  0  0  0
    8.6224   -4.8563    0.0000 H   0  0  0  0  0  0  0  0  0  0  0  0
    9.6071   -2.7452    0.0000 H   0  0  0  0  0  0  0  0  0  0  0  0
    6.3508   -3.0720    0.0000 H   0  0  0  0  0  0  0  0  0  0  0  0
    6.5713   -2.3048    0.0000 H   0  0  0  0  0  0  0  0  0  0  0  0
    3.6068   -1.4154    0.0000 H   0  0  0  0  0  0  0  0  0  0  0  0
    3.3686   -2.1773    0.0000 H   0  0  0  0  0  0  0  0  0  0  0  0
    4.9440   -3.8621    0.0000 H   0  0  0  0  0  0  0  0  0  0  0  0
    5.7202   -3.6755    0.0000 H   0  0  0  0  0  0  0  0  0  0  0  0
    3.5628   -3.0282    0.0000 H   0  0  0  0  0  0  0  0  0  0  0  0
    4.1080   -3.6113    0.0000 H   0  0  0  0  0  0  0  0  0  0  0  0
    3.9180   -0.0055    0.0000 H   0  0  0  0  0  0  0  0  0  0  0  0
    9.6061    0.4269    0.0000 H   0  0  0  0  0  0  0  0  0  0  0  0
   10.8527   -2.0869    0.0000 H   0  0  0  0  0  0  0  0  0  0  0  0
   12.4064    0.2496    0.0000 H   0  0  0  0  0  0  0  0  0  0  0  0
    3.6561    1.3788    0.0000 H   0  0  0  0  0  0  0  0  0  0  0  0
    6.3987    1.9715    0.0000 H   0  0  0  0  0  0  0  0  0  0  0  0
    8.4297    2.2815    0.0000 H   0  0  0  0  0  0  0  0  0  0  0  0
    4.5141    4.0504    0.0000 H   0  0  0  0  0  0  0  0  0  0  0  0
   11.7634    2.4847    0.0000 H   0  0  0  0  0  0  0  0  0  0  0  0
   11.1839    3.1426    0.0000 H   0  0  0  0  0  0  0  0  0  0  0  0
   10.5259    2.5631    0.0000 H   0  0  0  0  0  0  0  0  0  0  0  0
   12.0403    0.8439    0.0000 H   0  0  0  0  0  0  0  0  0  0  0  0
   12.6982    1.4235    0.0000 H   0  0  0  0  0  0  0  0  0  0  0  0
   12.1187    2.0814    0.0000 H   0  0  0  0  0  0  0  0  0  0  0  0
   10.1227    2.2078    0.0000 H   0  0  0  0  0  0  0  0  0  0  0  0
    9.4647    1.6283    0.0000 H   0  0  0  0  0  0  0  0  0  0  0  0
   10.0443    0.9703    0.0000 H   0  0  0  0  0  0  0  0  0  0  0  0
   13.1099   -2.6476    0.0000 H   0  0  0  0  0  0  0  0  0  0  0  0
   13.9695   -2.4746    0.0000 H   0  0  0  0  0  0  0  0  0  0  0  0
   13.7965   -1.6150    0.0000 H   0  0  0  0  0  0  0  0  0  0  0  0
   13.6905   -1.0882    0.0000 H   0  0  0  0  0  0  0  0  0  0  0  0
   13.5175   -0.2286    0.0000 H   0  0  0  0  0  0  0  0  0  0  0  0
   12.6579   -0.4016    0.0000 H   0  0  0  0  0  0  0  0  0  0  0  0
   11.5505   -2.0670    0.0000 H   0  0  0  0  0  0  0  0  0  0  0  0
   11.7234   -2.9266    0.0000 H   0  0  0  0  0  0  0  0  0  0  0  0
   12.5830   -2.7536    0.0000 H   0  0  0  0  0  0  0  0  0  0  0  0
    2.1896    3.9746    0.0000 H   0  0  0  0  0  0  0  0  0  0  0  0
    1.4097    3.5738    0.0000 H   0  0  0  0  0  0  0  0  0  0  0  0
    1.8104    2.7940    0.0000 H   0  0  0  0  0  0  0  0  0  0  0  0
    3.8482    3.8410    0.0000 H   0  0  0  0  0  0  0  0  0  0  0  0
    3.4475    4.6209    0.0000 H   0  0  0  0  0  0  0  0  0  0  0  0
    2.6676    4.2202    0.0000 H   0  0  0  0  0  0  0  0  0  0  0  0
    2.0560    2.3160    0.0000 H   0  0  0  0  0  0  0  0  0  0  0  0
    2.4567    1.5361    0.0000 H   0  0  0  0  0  0  0  0  0  0  0  0
    3.2366    1.9368    0.0000 H   0  0  0  0  0  0  0  0  0  0  0  0
    7.4953    4.0225    0.0000 H   0  0  0  0  0  0  0  0  0  0  0  0
    7.5382    4.8983    0.0000 H   0  0  0  0  0  0  0  0  0  0  0  0
    6.6625    4.9412    0.0000 H   0  0  0  0  0  0  0  0  0  0  0  0
    6.1257    4.9675    0.0000 H   0  0  0  0  0  0  0  0  0  0  0  0
    5.2500    5.0104    0.0000 H   0  0  0  0  0  0  0  0  0  0  0  0
    5.2070    4.1346    0.0000 H   0  0  0  0  0  0  0  0  0  0  0  0
    6.5504    2.6529    0.0000 H   0  0  0  0  0  0  0  0  0  0  0  0
    7.4261    2.6100    0.0000 H   0  0  0  0  0  0  0  0  0  0  0  0
    7.4690    3.4858    0.0000 H   0  0  0  0  0  0  0  0  0  0  0  0
  1  2  1  0  0  0  0
  1  3  1  0  0  0  0
  1  4  1  0  0  0  0
  1  5  2  0  0  0  0
  2 15  1  0  0  0  0
  3 18  1  0  0  0  0
  4 79  1  0  0  0  0
  6  7  1  0  0  0  0
  6  8  1  0  0  0  0
  6 10  1  0  0  0  0
  6 54  1  0  0  0  0
  7  9  1  0  0  0  0
  7 13  1  0  0  0  0
  7 55  1  0  0  0  0
  8 11  1  0  0  0  0
  8 56  1  0  0  0  0
  8 57  1  0  0  0  0
  9 12  1  0  0  0  0
  9 58  1  0  0  0  0
  9 59  1  0  0  0  0
 10 14  1  0  0  0  0
 10 15  2  0  0  0  0
 11 12  1  0  0  0  0
 11 60  1  0  0  0  0
 11 61  1  0  0  0  0
 12 62  1  0  0  0  0
 12 63  1  0  0  0  0
 13 16  2  0  0  0  0
 13 64  1  0  0  0  0
 14 17  2  0  0  0  0
 14 18  1  0  0  0  0
 15 16  1  0  0  0  0
 16 21  1  0  0  0  0
 17 19  1  0  0  0  0
 17 20  1  0  0  0  0
 18 24  2  0  0  0  0
 19 22  1  0  0  0  0
 19 26  2  0  0  0  0
 20 23  1  0  0  0  0
 20 65  1  0  0  0  0
 20 66  1  0  0  0  0
 21 27  2  0  0  0  0
 21 28  1  0  0  0  0
 22 25  1  0  0  0  0
 22 67  1  0  0  0  0
 22 68  1  0  0  0  0
 23 25  1  0  0  0  0
 23 69  1  0  0  0  0
 23 70  1  0  0  0  0
 24 26  1  0  0  0  0
 24 29  1  0  0  0  0
 25 71  1  0  0  0  0
 25 72  1  0  0  0  0
 26 73  1  0  0  0  0
 27 30  1  0  0  0  0
 27 74  1  0  0  0  0
 28 31  2  0  0  0  0
 28 75  1  0  0  0  0
 29 35  2  0  0  0  0
 29 36  1  0  0  0  0
 30 32  1  0  0  0  0
 30 34  2  0  0  0  0
 31 33  1  0  0  0  0
 31 34  1  0  0  0  0
 32 41  1  0  0  0  0
 32 42  1  0  0  0  0
 32 43  1  0  0  0  0
 33 44  1  0  0  0  0
 33 45  1  0  0  0  0
 33 46  1  0  0  0  0
 34 76  1  0  0  0  0
 35 37  1  0  0  0  0
 35 77  1  0  0  0  0
 36 38  2  0  0  0  0
 36 78  1  0  0  0  0
 37 39  1  0  0  0  0
 37 47  2  0  0  0  0
 38 40  1  0  0  0  0
 38 47  1  0  0  0  0
 39 48  1  0  0  0  0
 39 49  1  0  0  0  0
 39 50  1  0  0  0  0
 40 51  1  0  0  0  0
 40 52  1  0  0  0  0
 40 53  1  0  0  0  0
 41 81  1  0  0  0  0
 41 82  1  0  0  0  0
 41 83  1  0  0  0  0
 42 84  1  0  0  0  0
 42 85  1  0  0  0  0
 42 86  1  0  0  0  0
 43 87  1  0  0  0  0
 43 88  1  0  0  0  0
 43 89  1  0  0  0  0
 44 90  1  0  0  0  0
 44 91  1  0  0  0  0
 44 92  1  0  0  0  0
 45 93  1  0  0  0  0
 45 94  1  0  0  0  0
 45 95  1  0  0  0  0
 46 96  1  0  0  0  0
 46 97  1  0  0  0  0
 46 98  1  0  0  0  0
 47 80  1  0  0  0  0
 48 99  1  0  0  0  0
 48100  1  0  0  0  0
 48101  1  0  0  0  0
 49102  1  0  0  0  0
 49103  1  0  0  0  0
 49104  1  0  0  0  0
 50105  1  0  0  0  0
 50106  1  0  0  0  0
 50107  1  0  0  0  0
 51108  1  0  0  0  0
 51109  1  0  0  0  0
 51110  1  0  0  0  0
 52111  1  0  0  0  0
 52112  1  0  0  0  0
 52113  1  0  0  0  0
 53114  1  0  0  0  0
 53115  1  0  0  0  0
 53116  1  0  0  0  0
M  END
> <PUBCHEM_COMPOUND_CID>
155009197

> <PUBCHEM_COMPOUND_CANONICALIZED>
1

> <PUBCHEM_CACTVS_COMPLEXITY>
1400

> <PUBCHEM_CACTVS_HBOND_ACCEPTOR>
4

> <PUBCHEM_CACTVS_HBOND_DONOR>
1

> <PUBCHEM_CACTVS_ROTATABLE_BOND>
6

> <PUBCHEM_CACTVS_SUBSKEYS>
AAADcfB8OAIAAAAAAAAAAAAAAAAAAAAAAAAwYMGDBAAAAADBUAAAGgAACCAADwSAmAAyBoAAARCAQiBCAIACAAAgIAAAiAAECIgIJiKAERKAMAAkwBEIiAeAwPAP4AADAAAYAADAAAYAADAAAAAAAAAAAA==

> <PUBCHEM_IUPAC_OPENEYE_NAME>
10,16-bis(3,5-ditert-butylphenyl)-13-hydroxy-12,14-dioxa-13lambda5-phosphapentacyclo[13.8.0.02,11.03,8.018,23]tricosa-1(15),2,8,10,16-pentaene 13-oxide

> <PUBCHEM_IUPAC_CAS_NAME>
10,16-bis(3,5-ditert-butylphenyl)-13-hydroxy-12,14-dioxa-13lambda5-phosphapentacyclo[13.8.0.02,11.03,8.018,23]tricosa-1(15),2,8,10,16-pentaene 13-oxide

> <PUBCHEM_IUPAC_NAME_MARKUP>
10,16-bis(3,5-di<I>tert</I>-butylphenyl)-13-hydroxy-12,14-dioxa-13&lambda;<SUP>5</SUP>-phosphapentacyclo[13.8.0.0<SUP>2,11</SUP>.0<SUP>3,8</SUP>.0<SUP>18,23</SUP>]tricosa-1(15),2,8,10,16-pentaene 13-oxide

> <PUBCHEM_IUPAC_NAME>
10,16-bis(3,5-ditert-butylphenyl)-13-hydroxy-12,14-dioxa-13lambda5-phosphapentacyclo[13.8.0.02,11.03,8.018,23]tricosa-1(15),2,8,10,16-pentaene 13-oxide

> <PUBCHEM_IUPAC_SYSTEMATIC_NAME>
10,16-bis(3,5-ditert-butylphenyl)-13-oxidanyl-12,14-dioxa-13lambda5-phosphapentacyclo[13.8.0.02,11.03,8.018,23]tricosa-1(15),2,8,10,16-pentaene 13-oxide

> <PUBCHEM_IUPAC_TRADITIONAL_NAME>
10,16-bis(3,5-ditert-butylphenyl)-13-hydroxy-12,14-dioxa-13lambda5-phosphapentacyclo[13.8.0.02,11.03,8.018,23]tricosa-1(15),2,8,10,16-pentaene 13-oxide

> <PUBCHEM_IUPAC_INCHI>
InChI=1S/C48H63O4P/c1-45(2,3)33-21-31(22-34(27-33)46(4,5)6)39-25-29-17-13-15-19-37(29)41-42-38-20-16-14-18-30(38)26-40(44(42)52-53(49,50)51-43(39)41)32-23-35(47(7,8)9)28-36(24-32)48(10,11)12/h21-29,37H,13-20H2,1-12H3,(H,49,50)

> <PUBCHEM_IUPAC_INCHIKEY>
AVCBUHOLINZLGQ-UHFFFAOYSA-N

> <PUBCHEM_XLOGP3_AA>
14.2

> <PUBCHEM_EXACT_MASS>
734.44639748

> <PUBCHEM_MOLECULAR_FORMULA>
C48H63O4P

> <PUBCHEM_MOLECULAR_WEIGHT>
735.0

> <PUBCHEM_OPENEYE_CAN_SMILES>
CC(C)(C)C1=CC(=CC(=C1)C2=CC3CCCCC3C4=C2OP(=O)(OC5=C(C=C6CCCCC6=C45)C7=CC(=CC(=C7)C(C)(C)C)C(C)(C)C)O)C(C)(C)C

> <PUBCHEM_OPENEYE_ISO_SMILES>
CC(C)(C)C1=CC(=CC(=C1)C2=CC3CCCCC3C4=C2OP(=O)(OC5=C(C=C6CCCCC6=C45)C7=CC(=CC(=C7)C(C)(C)C)C(C)(C)C)O)C(C)(C)C

> <PUBCHEM_CACTVS_TPSA>
55.8

> <PUBCHEM_MONOISOTOPIC_WEIGHT>
734.44639748

> <PUBCHEM_TOTAL_CHARGE>
0

> <PUBCHEM_HEAVY_ATOM_COUNT>
53

> <PUBCHEM_ATOM_DEF_STEREO_COUNT>
0

> <PUBCHEM_ATOM_UDEF_STEREO_COUNT>
2

> <PUBCHEM_BOND_DEF_STEREO_COUNT>
0

> <PUBCHEM_BOND_UDEF_STEREO_COUNT>
0

> <PUBCHEM_ISOTOPIC_ATOM_COUNT>
0

> <PUBCHEM_COMPONENT_COUNT>
1

> <PUBCHEM_CACTVS_TAUTO_COUNT>
-1

> <PUBCHEM_COORDINATE_TYPE>
1
5
255

> <PUBCHEM_BONDANNOTATIONS>
14  17  8
14  18  8
17  19  8
18  24  8
19  26  8
21  27  8
21  28  8
24  26  8
27  30  8
28  31  8
29  35  8
29  36  8
30  34  8
31  34  8
35  37  8
36  38  8
37  47  8
38  47  8
6  8  3
7  9  3

$$$$
